IEEE_14_bus_test_system.m
%        IEEE 14-BUS TEST SYSTEM (American Electric Power)
%        Bus Bus   Voltage Angle   ---Load---- -------Generator---------Static Mvar        Number       
%        No  code  Mag.    rad      MW    Mvar     MW   Mvar  Qmin   Qmax   +Qc/-Ql  Area  in area 
%        1   2      3       4       5     6       7      8     9      10     11    12       13
busdata=[1   1    1.060      0.0   0.0   0.0    232.4  1.2   0.0    0.0      0      1       1
         2   2    1.035   -0.079  21.7  12.7     40.0 29.5 -40.0   50.0      0      1       2
         3   0    1.010   -0.200  94.2  19.0      0.0  0.0   0.0   40.0      0      1       3
         4   0    1.019   -0.172  47.8  -3.9      0.0  0.0   0.0    0.0      0      1       4
         5   2    1.020   -0.147   7.6   1.6     30.0  3.9  -6.0   24.0      0      1       5   
         6   0    1.070   -0.248  11.2   7.5      0.0  0.0  -6.0   24.0      0      1       6
         7   0    1.062   -0.232   0.0   0.0      0.0  0.0   0.0    0.0      0      2       1
         8   2    1.080   -0.232   0.0   0.0     40.0 38.8   0.0   50.0      0      2       2 
         9   0    1.056   -0.261  29.5  16.6      0.0  0.0   0.0    0.0      0      2       3
        10   0    1.051   -0.265   9.0   5.8      0.0  0.0   0.0    0.0     0.19    2       4
        11   2    1.057   -0.261   3.5   1.8     35.0  4.4  -6.0   24.0      0      2       5 
        12   0    1.055   -0.268   6.1   1.6      0.0  0     0.0    0.0      0      2       6
        13   2    1.050   -0.275  13.5   5.8     20.0 25.9   0.0   50.0      0      2       7   
        14   0    1.036   -0.287  14.9   5.0      0.0  0     0.0    0.0      0      2       8];

%                            Line code
%          Bus  bus   R         X         1/2 B   = 1 for lines
%          nl   nr    p.u.      p.u.      p.u.    > 1 or < 1 tr. tap at bus nl
linedata=[ 1    2     0.01938   0.05917   0.02640         1
           1    5     0.05403   0.22304   0.02040         1
           2    3     0.04699   0.19797   0.01840         1
           2    4     0.05811   0.17632   0.00420         1
           2    5     0.05695   0.17388   0.02090         1
           3    4     0.06701   0.17103   0.01870         1
           4    5     0.01335   0.04211   0.00450         1
           4    7     0.0       0.20912   0.01020         1
           4    9     0.0       0.55618   0.00850         1
           5    6     0.0       0.25202   0.00450         1
           6   11     0.09498   0.19890   0.0             0.978
           6   12     0.12291   0.25581   0.0             0.969
           6   13     0.06615   0.13027   0.0             1
           7    8     0.0       0.17615   0.0             1
           7    9     0.0       0.11001   0.0             0.932
           9   10     0.03181   0.08450   0.0             1
           9   14     0.12711   0.27038   0.0             1 
          10   11     0.08205   0.19207   0.0             1
		  12   13     0.22092   0.19988   0.0             1
		  13   14     0.17093   0.34802   0.0             1];
		   